*Heading
** Job name: test_solver Model name: test_solver
** Generated by: Abaqus/CAE 2022
*Preprint, echo=NO, model=NO, history=NO, contact=NO
**
** PARTS
**
*Part, name=Part-1
*Node
      1,           0.,           0.
      2,           5.,           0.
      3,          10.,           0.
      4,          15.,           0.
      5,          20.,           0.
      6,          25.,           0.
      7,          30.,           0.
      8,          35.,           0.
      9,          40.,           0.
     10,          45.,           0.
     11,          50.,           0.
     12,           0.,           5.
     13,           5.,           5.
     14,          10.,           5.
     15,          15.,           5.
     16,          20.,           5.
     17,          25.,           5.
     18,          30.,           5.
     19,          35.,           5.
     20,          40.,           5.
** ... 46 like lines cut
*Element, type=C2D4
 1,  1,  2, 13, 12
 2,  2,  3, 14, 13
 3,  3,  4, 15, 14
 4,  4,  5, 16, 15
 5,  5,  6, 17, 16
 6,  6,  7, 18, 17
 7,  7,  8, 19, 18
 8,  8,  9, 20, 19
 9,  9, 10, 21, 20
10, 10, 11, 22, 21
11, 12, 13, 24, 23
12, 13, 14, 25, 24
13, 14, 15, 26, 25
14, 15, 16, 27, 26
15, 16, 17, 28, 27
16, 17, 18, 29, 28
17, 18, 19, 30, 29
18, 19, 20, 31, 30
19, 20, 21, 32, 31
20, 21, 22, 33, 32
** ... 30 like lines cut
*Nset, nset=Set-1, generate
  1,  66,   1
*Elset, elset=Set-1, generate
  1,  50,   1
** Section: Section-1
*Solid Section, elset=Set-1, material=elastique
,
*End Part
**  
**
** ASSEMBLY
**
*Assembly, name=Assembly
**  
*Instance, name=Part-1-1, part=Part-1
*End Instance
**  
*Nset, nset=Set-embedding, instance=Part-1-1, generate
  1,  56,  11
*Nset, nset=Set-load, instance=Part-1-1, generate
 11,  66,  11
*End Assembly
** 
** MATERIALS
** 
*Material, name=elastique
*Density
 7.8e-09,
*Elastic
210000., 0.33
** ----------------------------------------------------------------
** 
** STEP: Step-1
** 
*Step, name=Step-1, nlgeom=YES
*Dynamic, Explicit
, 0.001
*Bulk Viscosity
0.06, 1.2
** 
** BOUNDARY CONDITIONS
** 
** Name: BC-1 Type: Velocity/Angular velocity
*Boundary, type=VELOCITY
Set-embedding, 1, 1
Set-embedding, 2, 2
Set-embedding, 6, 6
** Name: BC-2 Type: Velocity/Angular velocity
*Boundary, type=VELOCITY
Set-load, 1, 1, 1000.
Set-load, 2, 2
Set-load, 6, 6
** 
** OUTPUT REQUESTS
** 
*Restart, write, number interval=1, time marks=NO
** 
** FIELD OUTPUT: F-Output-1
** 
*Output, field, variable=PRESELECT
** 
** HISTORY OUTPUT: H-Output-1
** 
*Output, history, variable=PRESELECT
*End Step
